src/examples/case14_twoarea/two_area_02pulim_1_2/res_branch_2.csv
branch,from_bus,to_bus,X,B,G,Bfr,Bto,p_from,p_to,q_from,q_to,p_loss,q_loss,s_from,s_to,rate_a,ang_deg,angmin,angmax
7,4,5,0.035091666666666674,-24.893929112009626,9.470452253013397,0.0,0.0,0.09657115380511125,-0.09645411541685113,0.01556333315030717,-0.01525568729951826,0.00011703838826011836,0.0003076458507889103,0.09781720240324758,0.09765312271416579,0.2,0.16727940491561213,-60.0001403060998,60.0001403060998
4,2,4,0.14693333333333336,-5.885295774936327,2.3275490300468458,0.014166666666666668,0.014166666666666668,0.14987055009512182,-0.1486683301514083,0.00908341669654024,-0.03730956790244282,0.0012022199437135284,-0.028226151205902578,0.15014556351986363,0.15327842720707674,0.2,1.0683991425554746,-60.0001403060998,60.0001403060998
2,1,5,0.18586666666666668,-4.960987561041088,1.4421206487968972,0.0205,0.0205,0.19273637547906067,-0.19085722947072248,0.020910899494336815,-0.05977899249335673,0.0018791460083381895,-0.038868092999019915,0.1938674190019244,0.20000002496190047,0.2,1.7338149593675924,-60.0001403060998,60.0001403060998
3,2,3,0.164975,-5.606663082452164,1.5969516487008768,0.01825,0.01825,0.13066956733468288,-0.12977644466112961,0.043901622910080235,-0.08088503844055189,0.0008931226735532649,-0.03698341553047166,0.13784733701298732,0.15291930889332714,0.2,0.9664666518014414,-60.0001403060998,60.0001403060998
5,2,5,0.14490000000000003,-5.977892318521822,2.3494890789497425,0.014416666666666668,0.014416666666666668,0.17556262922615762,-0.17394461498893163,0.013473629329807215,-0.04112187692693536,0.0016180142372259898,-0.027648247597128146,0.17607888989915382,0.1787393013459594,0.2,1.2356785474710867,-60.0001403060998,60.0001403060998
6,3,4,0.142525,-5.746114879729376,2.701611353030454,0.005333333333333334,0.005333333333333334,-0.0006235453507621282,0.0006799654684036447,-0.035960412417052244,0.024485276012551946,5.642011764151649e-5,-0.011475136404500298,0.035965818077849175,0.024494715643360164,0.2,0.10193249075403309,-60.0001403060998,60.0001403060998
1,1,2,0.04930833333333334,-17.566853542948998,6.904423626750412,0.022000000000000002,0.022000000000000002,0.1989038558261375,-0.19822122229923167,-0.02091090948313617,-0.026614977545493832,0.0006826335269058403,-0.047525887028630004,0.20000002499479047,0.20000002499886985,0.2,0.4981364118965057,-60.0001403060998,60.0001403060998
